<?xml version="1.0" encoding="UTF-8"?>

<!-- generated on 2023-02-18 22:07:48 by Eclipse SUMO od2trips Version 1.16.0
<configuration xmlns:xsi="http://www.w3.org/2001/XMLSchema-instance" xsi:noNamespaceSchemaLocation="http://sumo.dlr.de/xsd/od2tripsConfiguration.xsd">

    <input>
        <taz-files value="/Users/osorio/notebooks/od_calibration_sumo_files/quickstart/data/quickstart.taz.xml"/>
        <tazrelation-files value="/Users/osorio/notebooks/od_calibration_sumo_files/quickstart/data/quickstart.gt_od.xml"/>
    </input>

    <output>
        <output-file value="/Users/osorio/notebooks/od_calibration_sumo_files/quickstart/data/gt_od_trips.trips.xml"/>
    </output>

    <processing>
        <spread.uniform value="true"/>
        <no-step-log value="true"/>
    </processing>

</configuration>
-->

<routes xmlns:xsi="http://www.w3.org/2001/XMLSchema-instance" xsi:noNamespaceSchemaLocation="http://sumo.dlr.de/xsd/routes_file.xsd">
    <trip id="1000" depart="54002.00" from="D4" to="D5" type="CarA" fromTaz="taz92" toTaz="taz93" departLane="free" departSpeed="max"/>
    <trip id="1900" depart="54002.00" from="D4" to="D7" type="CarA" fromTaz="taz92" toTaz="taz94" departLane="free" departSpeed="max"/>
    <trip id="0" depart="54003.60" from="D2" to="D5" type="CarA" fromTaz="taz91" toTaz="taz93" departLane="free" departSpeed="max"/>
    <trip id="500" depart="54003.60" from="D2" to="D7" type="CarA" fromTaz="taz91" toTaz="taz94" departLane="free" departSpeed="max"/>
    <trip id="1001" depart="54006.00" from="D4" to="D5" type="CarA" fromTaz="taz92" toTaz="taz93" departLane="free" departSpeed="max"/>
    <trip id="1901" depart="54006.00" from="D4" to="D7" type="CarA" fromTaz="taz92" toTaz="taz94" departLane="free" departSpeed="max"/>
    <trip id="1002" depart="54010.00" from="D4" to="D5" type="CarA" fromTaz="taz92" toTaz="taz93" departLane="free" departSpeed="max"/>
    <trip id="1902" depart="54010.00" from="D4" to="D7" type="CarA" fromTaz="taz92" toTaz="taz94" departLane="free" departSpeed="max"/>
    <trip id="1" depart="54010.80" from="D2" to="D5" type="CarA" fromTaz="taz91" toTaz="taz93" departLane="free" departSpeed="max"/>
    <trip id="501" depart="54010.80" from="D2" to="D7" type="CarA" fromTaz="taz91" toTaz="taz94" departLane="free" departSpeed="max"/>
    <trip id="1003" depart="54014.00" from="D4" to="D5" type="CarA" fromTaz="taz92" toTaz="taz93" departLane="free" departSpeed="max"/>
    <trip id="1903" depart="54014.00" from="D4" to="D7" type="CarA" fromTaz="taz92" toTaz="taz94" departLane="free" departSpeed="max"/>
    <trip id="1004" depart="54018.00" from="D4" to="D5" type="CarA" fromTaz="taz92" toTaz="taz93" departLane="free" departSpeed="max"/>
    <trip id="1904" depart="54018.00" from="D4" to="D7" type="CarA" fromTaz="taz92" toTaz="taz94" departLane="free" departSpeed="max"/>
    <trip id="2" depart="54018.00" from="D2" to="D5" type="CarA" fromTaz="taz91" toTaz="taz93" departLane="free" departSpeed="max"/>
    <trip id="502" depart="54018.00" from="D2" to="D7" type="CarA" fromTaz="taz91" toTaz="taz94" departLane="free" departSpeed="max"/>
    <trip id="1005" depart="54022.00" from="D4" to="D5" type="CarA" fromTaz="taz92" toTaz="taz93" departLane="free" departSpeed="max"/>
    <trip id="1905" depart="54022.00" from="D4" to="D7" type="CarA" fromTaz="taz92" toTaz="taz94" departLane="free" departSpeed="max"/>
    <trip id="3" depart="54025.20" from="D2" to="D5" type="CarA" fromTaz="taz91" toTaz="taz93" departLane="free" departSpeed="max"/>
    <trip id="503" depart="54025.20" from="D2" to="D7" type="CarA" fromTaz="taz91" toTaz="taz94" departLane="free" departSpeed="max"/>
    <trip id="1006" depart="54026.00" from="D4" to="D5" type="CarA" fromTaz="taz92" toTaz="taz93" departLane="free" departSpeed="max"/>
    <trip id="1906" depart="54026.00" from="D4" to="D7" type="CarA" fromTaz="taz92" toTaz="taz94" departLane="free" departSpeed="max"/>
    <trip id="1007" depart="54030.00" from="D4" to="D5" type="CarA" fromTaz="taz92" toTaz="taz93" departLane="free" departSpeed="max"/>
    <trip id="1907" depart="54030.00" from="D4" to="D7" type="CarA" fromTaz="taz92" toTaz="taz94" departLane="free" departSpeed="max"/>
    <trip id="4" depart="54032.40" from="D2" to="D5" type="CarA" fromTaz="taz91" toTaz="taz93" departLane="free" departSpeed="max"/>
    <trip id="504" depart="54032.40" from="D2" to="D7" type="CarA" fromTaz="taz91" toTaz="taz94" departLane="free" departSpeed="max"/>
    <trip id="1008" depart="54034.00" from="D4" to="D5" type="CarA" fromTaz="taz92" toTaz="taz93" departLane="free" departSpeed="max"/>
    <trip id="1908" depart="54034.00" from="D4" to="D7" type="CarA" fromTaz="taz92" toTaz="taz94" departLane="free" departSpeed="max"/>
    <trip id="1009" depart="54038.00" from="D4" to="D5" type="CarA" fromTaz="taz92" toTaz="taz93" departLane="free" departSpeed="max"/>
    <trip id="1909" depart="54038.00" from="D4" to="D7" type="CarA" fromTaz="taz92" toTaz="taz94" departLane="free" departSpeed="max"/>
    <trip id="5" depart="54039.60" from="D2" to="D5" type="CarA" fromTaz="taz91" toTaz="taz93" departLane="free" departSpeed="max"/>
    <trip id="505" depart="54039.60" from="D2" to="D7" type="CarA" fromTaz="taz91" toTaz="taz94" departLane="free" departSpeed="max"/>
    <trip id="1010" depart="54042.00" from="D4" to="D5" type="CarA" fromTaz="taz92" toTaz="taz93" departLane="free" departSpeed="max"/>
    <trip id="1910" depart="54042.00" from="D4" to="D7" type="CarA" fromTaz="taz92" toTaz="taz94" departLane="free" departSpeed="max"/>
    <trip id="1011" depart="54046.00" from="D4" to="D5" type="CarA" fromTaz="taz92" toTaz="taz93" departLane="free" departSpeed="max"/>
    <trip id="1911" depart="54046.00" from="D4" to="D7" type="CarA" fromTaz="taz92" toTaz="taz94" departLane="free" departSpeed="max"/>
    <trip id="506" depart="54046.80" from="D2" to="D7" type="CarA" fromTaz="taz91" toTaz="taz94" departLane="free" departSpeed="max"/>
    <trip id="6" depart="54046.80" from="D2" to="D5" type="CarA" fromTaz="taz91" toTaz="taz93" departLane="free" departSpeed="max"/>
    <trip id="1012" depart="54050.00" from="D4" to="D5" type="CarA" fromTaz="taz92" toTaz="taz93" departLane="free" departSpeed="max"/>
    <trip id="1912" depart="54050.00" from="D4" to="D7" type="CarA" fromTaz="taz92" toTaz="taz94" departLane="free" departSpeed="max"/>
    <trip id="1013" depart="54054.00" from="D4" to="D5" type="CarA" fromTaz="taz92" toTaz="taz93" departLane="free" departSpeed="max"/>
    <trip id="1913" depart="54054.00" from="D4" to="D7" type="CarA" fromTaz="taz92" toTaz="taz94" departLane="free" departSpeed="max"/>
    <trip id="507" depart="54054.00" from="D2" to="D7" type="CarA" fromTaz="taz91" toTaz="taz94" departLane="free" departSpeed="max"/>
    <trip id="7" depart="54054.00" from="D2" to="D5" type="CarA" fromTaz="taz91" toTaz="taz93" departLane="free" departSpeed="max"/>
    <trip id="1014" depart="54058.00" from="D4" to="D5" type="CarA" fromTaz="taz92" toTaz="taz93" departLane="free" departSpeed="max"/>
    <trip id="1914" depart="54058.00" from="D4" to="D7" type="CarA" fromTaz="taz92" toTaz="taz94" departLane="free" departSpeed="max"/>
    <trip id="508" depart="54061.20" from="D2" to="D7" type="CarA" fromTaz="taz91" toTaz="taz94" departLane="free" departSpeed="max"/>
    <trip id="8" depart="54061.20" from="D2" to="D5" type="CarA" fromTaz="taz91" toTaz="taz93" departLane="free" departSpeed="max"/>
    <trip id="1015" depart="54062.00" from="D4" to="D5" type="CarA" fromTaz="taz92" toTaz="taz93" departLane="free" departSpeed="max"/>
    <trip id="1915" depart="54062.00" from="D4" to="D7" type="CarA" fromTaz="taz92" toTaz="taz94" departLane="free" departSpeed="max"/>
    <trip id="1016" depart="54066.00" from="D4" to="D5" type="CarA" fromTaz="taz92" toTaz="taz93" departLane="free" departSpeed="max"/>
    <trip id="1916" depart="54066.00" from="D4" to="D7" type="CarA" fromTaz="taz92" toTaz="taz94" departLane="free" departSpeed="max"/>
    <trip id="509" depart="54068.40" from="D2" to="D7" type="CarA" fromTaz="taz91" toTaz="taz94" departLane="free" departSpeed="max"/>
    <trip id="9" depart="54068.40" from="D2" to="D5" type="CarA" fromTaz="taz91" toTaz="taz93" departLane="free" departSpeed="max"/>
    <trip id="1017" depart="54070.00" from="D4" to="D5" type="CarA" fromTaz="taz92" toTaz="taz93" departLane="free" departSpeed="max"/>
    <trip id="1917" depart="54070.00" from="D4" to="D7" type="CarA" fromTaz="taz92" toTaz="taz94" departLane="free" departSpeed="max"/>
    <trip id="1018" depart="54074.00" from="D4" to="D5" type="CarA" fromTaz="taz92" toTaz="taz93" departLane="free" departSpeed="max"/>
    <trip id="1918" depart="54074.00" from="D4" to="D7" type="CarA" fromTaz="taz92" toTaz="taz94" departLane="free" departSpeed="max"/>
    <trip id="10" depart="54075.60" from="D2" to="D5" type="CarA" fromTaz="taz91" toTaz="taz93" departLane="free" departSpeed="max"/>
    <trip id="510" depart="54075.60" from="D2" to="D7" type="CarA" fromTaz="taz91" toTaz="taz94" departLane="free" departSpeed="max"/>
    <trip id="1019" depart="54078.00" from="D4" to="D5" type="CarA" fromTaz="taz92" toTaz="taz93" departLane="free" departSpeed="max"/>
    <trip id="1919" depart="54078.00" from="D4" to="D7" type="CarA" fromTaz="taz92" toTaz="taz94" departLane="free" departSpeed="max"/>
    <trip id="1020" depart="54082.00" from="D4" to="D5" type="CarA" fromTaz="taz92" toTaz="taz93" departLane="free" departSpeed="max"/>
    <trip id="1920" depart="54082.00" from="D4" to="D7" type="CarA" fromTaz="taz92" toTaz="taz94" departLane="free" departSpeed="max"/>
    <trip id="11" depart="54082.80" from="D2" to="D5" type="CarA" fromTaz="taz91" toTaz="taz93" departLane="free" departSpeed="max"/>
    <trip id="511" depart="54082.80" from="D2" to="D7" type="CarA" fromTaz="taz91" toTaz="taz94" departLane="free" departSpeed="max"/>
    <trip id="1021" depart="54086.00" from="D4" to="D5" type="CarA" fromTaz="taz92" toTaz="taz93" departLane="free" departSpeed="max"/>
    <trip id="1921" depart="54086.00" from="D4" to="D7" type="CarA" fromTaz="taz92" toTaz="taz94" departLane="free" departSpeed="max"/>
    <trip id="1022" depart="54090.00" from="D4" to="D5" type="CarA" fromTaz="taz92" toTaz="taz93" departLane="free" departSpeed="max"/>
    <trip id="12" depart="54090.00" from="D2" to="D5" type="CarA" fromTaz="taz91" toTaz="taz93" departLane="free" departSpeed="max"/>
    <trip id="1922" depart="54090.00" from="D4" to="D7" type="CarA" fromTaz="taz92" toTaz="taz94" departLane="free" departSpeed="max"/>
    <trip id="512" depart="54090.00" from="D2" to="D7" type="CarA" fromTaz="taz91" toTaz="taz94" departLane="free" departSpeed="max"/>
    <trip id="1023" depart="54094.00" from="D4" to="D5" type="CarA" fromTaz="taz92" toTaz="taz93" departLane="free" departSpeed="max"/>
    <trip id="1923" depart="54094.00" from="D4" to="D7" type="CarA" fromTaz="taz92" toTaz="taz94" departLane="free" departSpeed="max"/>
    <trip id="13" depart="54097.20" from="D2" to="D5" type="CarA" fromTaz="taz91" toTaz="taz93" departLane="free" departSpeed="max"/>
    <trip id="513" depart="54097.20" from="D2" to="D7" type="CarA" fromTaz="taz91" toTaz="taz94" departLane="free" departSpeed="max"/>
    <trip id="1024" depart="54098.00" from="D4" to="D5" type="CarA" fromTaz="taz92" toTaz="taz93" departLane="free" departSpeed="max"/>
    <trip id="1924" depart="54098.00" from="D4" to="D7" type="CarA" fromTaz="taz92" toTaz="taz94" departLane="free" departSpeed="max"/>
    <trip id="1025" depart="54102.00" from="D4" to="D5" type="CarA" fromTaz="taz92" toTaz="taz93" departLane="free" departSpeed="max"/>
    <trip id="1925" depart="54102.00" from="D4" to="D7" type="CarA" fromTaz="taz92" toTaz="taz94" departLane="free" departSpeed="max"/>
    <trip id="14" depart="54104.40" from="D2" to="D5" type="CarA" fromTaz="taz91" toTaz="taz93" departLane="free" departSpeed="max"/>
    <trip id="514" depart="54104.40" from="D2" to="D7" type="CarA" fromTaz="taz91" toTaz="taz94" departLane="free" departSpeed="max"/>
    <trip id="1026" depart="54106.00" from="D4" to="D5" type="CarA" fromTaz="taz92" toTaz="taz93" departLane="free" departSpeed="max"/>
    <trip id="1926" depart="54106.00" from="D4" to="D7" type="CarA" fromTaz="taz92" toTaz="taz94" departLane="free" departSpeed="max"/>
    <trip id="1027" depart="54110.00" from="D4" to="D5" type="CarA" fromTaz="taz92" toTaz="taz93" departLane="free" departSpeed="max"/>
    <trip id="1927" depart="54110.00" from="D4" to="D7" type="CarA" fromTaz="taz92" toTaz="taz94" departLane="free" departSpeed="max"/>
    <trip id="15" depart="54111.60" from="D2" to="D5" type="CarA" fromTaz="taz91" toTaz="taz93" departLane="free" departSpeed="max"/>
    <trip id="515" depart="54111.60" from="D2" to="D7" type="CarA" fromTaz="taz91" toTaz="taz94" departLane="free" departSpeed="max"/>
    <trip id="1028" depart="54114.00" from="D4" to="D5" type="CarA" fromTaz="taz92" toTaz="taz93" departLane="free" departSpeed="max"/>
    <trip id="1928" depart="54114.00" from="D4" to="D7" type="CarA" fromTaz="taz92" toTaz="taz94" departLane="free" departSpeed="max"/>
    <trip id="1029" depart="54118.00" from="D4" to="D5" type="CarA" fromTaz="taz92" toTaz="taz93" departLane="free" departSpeed="max"/>
    <trip id="1929" depart="54118.00" from="D4" to="D7" type="CarA" fromTaz="taz92" toTaz="taz94" departLane="free" departSpeed="max"/>
    <trip id="16" depart="54118.80" from="D2" to="D5" type="CarA" fromTaz="taz91" toTaz="taz93" departLane="free" departSpeed="max"/>
    <trip id="516" depart="54118.80" from="D2" to="D7" type="CarA" fromTaz="taz91" toTaz="taz94" departLane="free" departSpeed="max"/>
    <trip id="1030" depart="54122.00" from="D4" to="D5" type="CarA" fromTaz="taz92" toTaz="taz93" departLane="free" departSpeed="max"/>
    <trip id="1930" depart="54122.00" from="D4" to="D7" type="CarA" fromTaz="taz92" toTaz="taz94" departLane="free" departSpeed="max"/>
    <trip id="1031" depart="54126.00" from="D4" to="D5" type="CarA" fromTaz="taz92" toTaz="taz93" departLane="free" departSpeed="max"/>
    <trip id="17" depart="54126.00" from="D2" to="D5" type="CarA" fromTaz="taz91" toTaz="taz93" departLane="free" departSpeed="max"/>
    <trip id="1931" depart="54126.00" from="D4" to="D7" type="CarA" fromTaz="taz92" toTaz="taz94" departLane="free" departSpeed="max"/>
    <trip id="517" depart="54126.00" from="D2" to="D7" type="CarA" fromTaz="taz91" toTaz="taz94" departLane="free" departSpeed="max"/>
    <trip id="1032" depart="54130.00" from="D4" to="D5" type="CarA" fromTaz="taz92" toTaz="taz93" departLane="free" departSpeed="max"/>
    <trip id="1932" depart="54130.00" from="D4" to="D7" type="CarA" fromTaz="taz92" toTaz="taz94" departLane="free" departSpeed="max"/>
    <trip id="18" depart="54133.20" from="D2" to="D5" type="CarA" fromTaz="taz91" toTaz="taz93" departLane="free" departSpeed="max"/>
    <trip id="518" depart="54133.20" from="D2" to="D7" type="CarA" fromTaz="taz91" toTaz="taz94" departLane="free" departSpeed="max"/>
    <trip id="1033" depart="54134.00" from="D4" to="D5" type="CarA" fromTaz="taz92" toTaz="taz93" departLane="free" departSpeed="max"/>
    <trip id="1933" depart="54134.00" from="D4" to="D7" type="CarA" fromTaz="taz92" toTaz="taz94" departLane="free" departSpeed="max"/>
    <trip id="1034" depart="54138.00" from="D4" to="D5" type="CarA" fromTaz="taz92" toTaz="taz93" departLane="free" departSpeed="max"/>
    <trip id="1934" depart="54138.00" from="D4" to="D7" type="CarA" fromTaz="taz92" toTaz="taz94" departLane="free" departSpeed="max"/>
    <trip id="19" depart="54140.40" from="D2" to="D5" type="CarA" fromTaz="taz91" toTaz="taz93" departLane="free" departSpeed="max"/>
    <trip id="519" depart="54140.40" from="D2" to="D7" type="CarA" fromTaz="taz91" toTaz="taz94" departLane="free" departSpeed="max"/>
    <trip id="1035" depart="54142.00" from="D4" to="D5" type="CarA" fromTaz="taz92" toTaz="taz93" departLane="free" departSpeed="max"/>
    <trip id="1935" depart="54142.00" from="D4" to="D7" type="CarA" fromTaz="taz92" toTaz="taz94" departLane="free" departSpeed="max"/>
    <trip id="1036" depart="54146.00" from="D4" to="D5" type="CarA" fromTaz="taz92" toTaz="taz93" departLane="free" departSpeed="max"/>
    <trip id="1936" depart="54146.00" from="D4" to="D7" type="CarA" fromTaz="taz92" toTaz="taz94" departLane="free" departSpeed="max"/>
    <trip id="20" depart="54147.60" from="D2" to="D5" type="CarA" fromTaz="taz91" toTaz="taz93" departLane="free" departSpeed="max"/>
    <trip id="520" depart="54147.60" from="D2" to="D7" type="CarA" fromTaz="taz91" toTaz="taz94" departLane="free" departSpeed="max"/>
    <trip id="1037" depart="54150.00" from="D4" to="D5" type="CarA" fromTaz="taz92" toTaz="taz93" departLane="free" departSpeed="max"/>
    <trip id="1937" depart="54150.00" from="D4" to="D7" type="CarA" fromTaz="taz92" toTaz="taz94" departLane="free" departSpeed="max"/>
    <trip id="1038" depart="54154.00" from="D4" to="D5" type="CarA" fromTaz="taz92" toTaz="taz93" departLane="free" departSpeed="max"/>
    <trip id="1938" depart="54154.00" from="D4" to="D7" type="CarA" fromTaz="taz92" toTaz="taz94" departLane="free" departSpeed="max"/>
    <trip id="21" depart="54154.80" from="D2" to="D5" type="CarA" fromTaz="taz91" toTaz="taz93" departLane="free" departSpeed="max"/>
    <trip id="521" depart="54154.80" from="D2" to="D7" type="CarA" fromTaz="taz91" toTaz="taz94" departLane="free" departSpeed="max"/>
    <trip id="1039" depart="54158.00" from="D4" to="D5" type="CarA" fromTaz="taz92" toTaz="taz93" departLane="free" departSpeed="max"/>
    <trip id="1939" depart="54158.00" from="D4" to="D7" type="CarA" fromTaz="taz92" toTaz="taz94" departLane="free" departSpeed="max"/>
    <trip id="1040" depart="54162.00" from="D4" to="D5" type="CarA" fromTaz="taz92" toTaz="taz93" departLane="free" departSpeed="max"/>
    <trip id="1940" depart="54162.00" from="D4" to="D7" type="CarA" fromTaz="taz92" toTaz="taz94" departLane="free" departSpeed="max"/>
    <trip id="22" depart="54162.00" from="D2" to="D5" type="CarA" fromTaz="taz91" toTaz="taz93" departLane="free" departSpeed="max"/>
    <trip id="522" depart="54162.00" from="D2" to="D7" type="CarA" fromTaz="taz91" toTaz="taz94" departLane="free" departSpeed="max"/>
    <trip id="1041" depart="54166.00" from="D4" to="D5" type="CarA" fromTaz="taz92" toTaz="taz93" departLane="free" departSpeed="max"/>
    <trip id="1941" depart="54166.00" from="D4" to="D7" type="CarA" fromTaz="taz92" toTaz="taz94" departLane="free" departSpeed="max"/>
    <trip id="23" depart="54169.20" from="D2" to="D5" type="CarA" fromTaz="taz91" toTaz="taz93" departLane="free" departSpeed="max"/>
    <trip id="523" depart="54169.20" from="D2" to="D7" type="CarA" fromTaz="taz91" toTaz="taz94" departLane="free" departSpeed="max"/>
    <trip id="1042" depart="54170.00" from="D4" to="D5" type="CarA" fromTaz="taz92" toTaz="taz93" departLane="free" departSpeed="max"/>
    <trip id="1942" depart="54170.00" from="D4" to="D7" type="CarA" fromTaz="taz92" toTaz="taz94" departLane="free" departSpeed="max"/>
    <trip id="1043" depart="54174.00" from="D4" to="D5" type="CarA" fromTaz="taz92" toTaz="taz93" departLane="free" departSpeed="max"/>
    <trip id="1943" depart="54174.00" from="D4" to="D7" type="CarA" fromTaz="taz92" toTaz="taz94" departLane="free" departSpeed="max"/>
    <trip id="24" depart="54176.40" from="D2" to="D5" type="CarA" fromTaz="taz91" toTaz="taz93" departLane="free" departSpeed="max"/>
    <trip id="524" depart="54176.40" from="D2" to="D7" type="CarA" fromTaz="taz91" toTaz="taz94" departLane="free" departSpeed="max"/>
    <trip id="1044" depart="54178.00" from="D4" to="D5" type="CarA" fromTaz="taz92" toTaz="taz93" departLane="free" departSpeed="max"/>
    <trip id="1944" depart="54178.00" from="D4" to="D7" type="CarA" fromTaz="taz92" toTaz="taz94" departLane="free" departSpeed="max"/>
    <trip id="1045" depart="54182.00" from="D4" to="D5" type="CarA" fromTaz="taz92" toTaz="taz93" departLane="free" departSpeed="max"/>
    <trip id="1945" depart="54182.00" from="D4" to="D7" type="CarA" fromTaz="taz92" toTaz="taz94" departLane="free" departSpeed="max"/>
    <trip id="25" depart="54183.60" from="D2" to="D5" type="CarA" fromTaz="taz91" toTaz="taz93" departLane="free" departSpeed="max"/>
    <trip id="525" depart="54183.60" from="D2" to="D7" type="CarA" fromTaz="taz91" toTaz="taz94" departLane="free" departSpeed="max"/>
    <trip id="1046" depart="54186.00" from="D4" to="D5" type="CarA" fromTaz="taz92" toTaz="taz93" departLane="free" departSpeed="max"/>
    <trip id="1946" depart="54186.00" from="D4" to="D7" type="CarA" fromTaz="taz92" toTaz="taz94" departLane="free" departSpeed="max"/>
    <trip id="1047" depart="54190.00" from="D4" to="D5" type="CarA" fromTaz="taz92" toTaz="taz93" departLane="free" departSpeed="max"/>
    <trip id="1947" depart="54190.00" from="D4" to="D7" type="CarA" fromTaz="taz92" toTaz="taz94" departLane="free" departSpeed="max"/>
    <trip id="26" depart="54190.80" from="D2" to="D5" type="CarA" fromTaz="taz91" toTaz="taz93" departLane="free" departSpeed="max"/>
    <trip id="526" depart="54190.80" from="D2" to="D7" type="CarA" fromTaz="taz91" toTaz="taz94" departLane="free" departSpeed="max"/>
    <trip id="1048" depart="54194.00" from="D4" to="D5" type="CarA" fromTaz="taz92" toTaz="taz93" departLane="free" departSpeed="max"/>
    <trip id="1948" depart="54194.00" from="D4" to="D7" type="CarA" fromTaz="taz92" toTaz="taz94" departLane="free" departSpeed="max"/>
    <trip id="1049" depart="54198.00" from="D4" to="D5" type="CarA" fromTaz="taz92" toTaz="taz93" departLane="free" departSpeed="max"/>
    <trip id="1949" depart="54198.00" from="D4" to="D7" type="CarA" fromTaz="taz92" toTaz="taz94" departLane="free" departSpeed="max"/>
    <trip id="27" depart="54198.00" from="D2" to="D5" type="CarA" fromTaz="taz91" toTaz="taz93" departLane="free" departSpeed="max"/>
    <trip id="527" depart="54198.00" from="D2" to="D7" type="CarA" fromTaz="taz91" toTaz="taz94" departLane="free" departSpeed="max"/>
    <trip id="1050" depart="54202.00" from="D4" to="D5" type="CarA" fromTaz="taz92" toTaz="taz93" departLane="free" departSpeed="max"/>
    <trip id="1950" depart="54202.00" from="D4" to="D7" type="CarA" fromTaz="taz92" toTaz="taz94" departLane="free" departSpeed="max"/>
    <trip id="28" depart="54205.20" from="D2" to="D5" type="CarA" fromTaz="taz91" toTaz="taz93" departLane="free" departSpeed="max"/>
    <trip id="528" depart="54205.20" from="D2" to="D7" type="CarA" fromTaz="taz91" toTaz="taz94" departLane="free" departSpeed="max"/>
    <trip id="1051" depart="54206.00" from="D4" to="D5" type="CarA" fromTaz="taz92" toTaz="taz93" departLane="free" departSpeed="max"/>
    <trip id="1951" depart="54206.00" from="D4" to="D7" type="CarA" fromTaz="taz92" toTaz="taz94" departLane="free" departSpeed="max"/>
    <trip id="1052" depart="54210.00" from="D4" to="D5" type="CarA" fromTaz="taz92" toTaz="taz93" departLane="free" departSpeed="max"/>
    <trip id="1952" depart="54210.00" from="D4" to="D7" type="CarA" fromTaz="taz92" toTaz="taz94" departLane="free" departSpeed="max"/>
    <trip id="29" depart="54212.40" from="D2" to="D5" type="CarA" fromTaz="taz91" toTaz="taz93" departLane="free" departSpeed="max"/>
    <trip id="529" depart="54212.40" from="D2" to="D7" type="CarA" fromTaz="taz91" toTaz="taz94" departLane="free" departSpeed="max"/>
    <trip id="1053" depart="54214.00" from="D4" to="D5" type="CarA" fromTaz="taz92" toTaz="taz93" departLane="free" departSpeed="max"/>
    <trip id="1953" depart="54214.00" from="D4" to="D7" type="CarA" fromTaz="taz92" toTaz="taz94" departLane="free" departSpeed="max"/>
    <trip id="1054" depart="54218.00" from="D4" to="D5" type="CarA" fromTaz="taz92" toTaz="taz93" departLane="free" departSpeed="max"/>
    <trip id="1954" depart="54218.00" from="D4" to="D7" type="CarA" fromTaz="taz92" toTaz="taz94" departLane="free" departSpeed="max"/>
    <trip id="30" depart="54219.60" from="D2" to="D5" type="CarA" fromTaz="taz91" toTaz="taz93" departLane="free" departSpeed="max"/>
    <trip id="530" depart="54219.60" from="D2" to="D7" type="CarA" fromTaz="taz91" toTaz="taz94" departLane="free" departSpeed="max"/>
    <trip id="1055" depart="54222.00" from="D4" to="D5" type="CarA" fromTaz="taz92" toTaz="taz93" departLane="free" departSpeed="max"/>
    <trip id="1955" depart="54222.00" from="D4" to="D7" type="CarA" fromTaz="taz92" toTaz="taz94" departLane="free" departSpeed="max"/>
    <trip id="1056" depart="54226.00" from="D4" to="D5" type="CarA" fromTaz="taz92" toTaz="taz93" departLane="free" departSpeed="max"/>
    <trip id="1956" depart="54226.00" from="D4" to="D7" type="CarA" fromTaz="taz92" toTaz="taz94" departLane="free" departSpeed="max"/>
    <trip id="31" depart="54226.80" from="D2" to="D5" type="CarA" fromTaz="taz91" toTaz="taz93" departLane="free" departSpeed="max"/>
    <trip id="531" depart="54226.80" from="D2" to="D7" type="CarA" fromTaz="taz91" toTaz="taz94" departLane="free" departSpeed="max"/>
    <trip id="1057" depart="54230.00" from="D4" to="D5" type="CarA" fromTaz="taz92" toTaz="taz93" departLane="free" departSpeed="max"/>
    <trip id="1957" depart="54230.00" from="D4" to="D7" type="CarA" fromTaz="taz92" toTaz="taz94" departLane="free" departSpeed="max"/>
    <trip id="1058" depart="54234.00" from="D4" to="D5" type="CarA" fromTaz="taz92" toTaz="taz93" departLane="free" departSpeed="max"/>
    <trip id="1958" depart="54234.00" from="D4" to="D7" type="CarA" fromTaz="taz92" toTaz="taz94" departLane="free" departSpeed="max"/>
    <trip id="32" depart="54234.00" from="D2" to="D5" type="CarA" fromTaz="taz91" toTaz="taz93" departLane="free" departSpeed="max"/>
    <trip id="532" depart="54234.00" from="D2" to="D7" type="CarA" fromTaz="taz91" toTaz="taz94" departLane="free" departSpeed="max"/>
    <trip id="1059" depart="54238.00" from="D4" to="D5" type="CarA" fromTaz="taz92" toTaz="taz93" departLane="free" departSpeed="max"/>
    <trip id="1959" depart="54238.00" from="D4" to="D7" type="CarA" fromTaz="taz92" toTaz="taz94" departLane="free" departSpeed="max"/>
    <trip id="33" depart="54241.20" from="D2" to="D5" type="CarA" fromTaz="taz91" toTaz="taz93" departLane="free" departSpeed="max"/>
    <trip id="533" depart="54241.20" from="D2" to="D7" type="CarA" fromTaz="taz91" toTaz="taz94" departLane="free" departSpeed="max"/>
    <trip id="1060" depart="54242.00" from="D4" to="D5" type="CarA" fromTaz="taz92" toTaz="taz93" departLane="free" departSpeed="max"/>
    <trip id="1960" depart="54242.00" from="D4" to="D7" type="CarA" fromTaz="taz92" toTaz="taz94" departLane="free" departSpeed="max"/>
    <trip id="1061" depart="54246.00" from="D4" to="D5" type="CarA" fromTaz="taz92" toTaz="taz93" departLane="free" departSpeed="max"/>
    <trip id="1961" depart="54246.00" from="D4" to="D7" type="CarA" fromTaz="taz92" toTaz="taz94" departLane="free" departSpeed="max"/>
    <trip id="34" depart="54248.40" from="D2" to="D5" type="CarA" fromTaz="taz91" toTaz="taz93" departLane="free" departSpeed="max"/>
    <trip id="534" depart="54248.40" from="D2" to="D7" type="CarA" fromTaz="taz91" toTaz="taz94" departLane="free" departSpeed="max"/>
    <trip id="1062" depart="54250.00" from="D4" to="D5" type="CarA" fromTaz="taz92" toTaz="taz93" departLane="free" departSpeed="max"/>
    <trip id="1962" depart="54250.00" from="D4" to="D7" type="CarA" fromTaz="taz92" toTaz="taz94" departLane="free" departSpeed="max"/>
    <trip id="1063" depart="54254.00" from="D4" to="D5" type="CarA" fromTaz="taz92" toTaz="taz93" departLane="free" departSpeed="max"/>
    <trip id="1963" depart="54254.00" from="D4" to="D7" type="CarA" fromTaz="taz92" toTaz="taz94" departLane="free" departSpeed="max"/>
    <trip id="35" depart="54255.60" from="D2" to="D5" type="CarA" fromTaz="taz91" toTaz="taz93" departLane="free" departSpeed="max"/>
    <trip id="535" depart="54255.60" from="D2" to="D7" type="CarA" fromTaz="taz91" toTaz="taz94" departLane="free" departSpeed="max"/>
    <trip id="1064" depart="54258.00" from="D4" to="D5" type="CarA" fromTaz="taz92" toTaz="taz93" departLane="free" departSpeed="max"/>
    <trip id="1964" depart="54258.00" from="D4" to="D7" type="CarA" fromTaz="taz92" toTaz="taz94" departLane="free" departSpeed="max"/>
    <trip id="1065" depart="54262.00" from="D4" to="D5" type="CarA" fromTaz="taz92" toTaz="taz93" departLane="free" departSpeed="max"/>
    <trip id="1965" depart="54262.00" from="D4" to="D7" type="CarA" fromTaz="taz92" toTaz="taz94" departLane="free" departSpeed="max"/>
    <trip id="36" depart="54262.80" from="D2" to="D5" type="CarA" fromTaz="taz91" toTaz="taz93" departLane="free" departSpeed="max"/>
    <trip id="536" depart="54262.80" from="D2" to="D7" type="CarA" fromTaz="taz91" toTaz="taz94" departLane="free" departSpeed="max"/>
    <trip id="1066" depart="54266.00" from="D4" to="D5" type="CarA" fromTaz="taz92" toTaz="taz93" departLane="free" departSpeed="max"/>
    <trip id="1966" depart="54266.00" from="D4" to="D7" type="CarA" fromTaz="taz92" toTaz="taz94" departLane="free" departSpeed="max"/>
    <trip id="1067" depart="54270.00" from="D4" to="D5" type="CarA" fromTaz="taz92" toTaz="taz93" departLane="free" departSpeed="max"/>
    <trip id="1967" depart="54270.00" from="D4" to="D7" type="CarA" fromTaz="taz92" toTaz="taz94" departLane="free" departSpeed="max"/>
    <trip id="37" depart="54270.00" from="D2" to="D5" type="CarA" fromTaz="taz91" toTaz="taz93" departLane="free" departSpeed="max"/>
    <trip id="537" depart="54270.00" from="D2" to="D7" type="CarA" fromTaz="taz91" toTaz="taz94" departLane="free" departSpeed="max"/>
    <trip id="1068" depart="54274.00" from="D4" to="D5" type="CarA" fromTaz="taz92" toTaz="taz93" departLane="free" departSpeed="max"/>
    <trip id="1968" depart="54274.00" from="D4" to="D7" type="CarA" fromTaz="taz92" toTaz="taz94" departLane="free" departSpeed="max"/>