<?xml version="1.0" encoding="UTF-8"?>
<routes>
  <vType accel="1.0" decel="6.0" id="CarA" length="5.0" minGap="2.5" maxSpeed="50.0" sigma="0.5" />

  <route id="route01" edges="D2 L2 L12 L10 L7 D7"/>
  <route id="route02" edges="D2 L2 L12 L15 L18 L5 D5"/>
  <route id="route04" edges="D4 L4 L14 L18 L5 D5"/>
  <route id="route05" edges="D4 L4 L14 L16 L10 L7 D7"/>


<vehicle depart="54000" id="veh0" type="CarA" color="1,0,0" > 
 <route id="route01" edges="D2 L2 L12 L10 L7 D7"/> 
 </vehicle>
<vehicle depart="54000" id="veh1" type="CarA" color="1,0,0" > 
 <route id="route02" edges="D2 L2 L12 L15 L18 L5 D5"/> 
 </vehicle>
<vehicle depart="54000" id="veh2" type="CarA" color="1,0,0" > 
 <route id="route04" edges="D4 L4 L14 L18 L5 D5"/> 
 </vehicle>
<vehicle depart="54000" id="veh3" type="CarA" color="1,0,0" > 
 <route id="route05" edges="D4 L4 L14 L16 L10 L7 D7"/> 
 </vehicle>
<vehicle depart="54030" id="veh4" type="CarA" color="1,0,0" > 
 <route id="route01" edges="D2 L2 L12 L10 L7 D7"/> 
 </vehicle>
<vehicle depart="54030" id="veh5" type="CarA" color="1,0,0" > 
 <route id="route02" edges="D2 L2 L12 L15 L18 L5 D5"/> 
 </vehicle>
<vehicle depart="54030" id="veh6" type="CarA" color="1,0,0" > 
 <route id="route04" edges="D4 L4 L14 L18 L5 D5"/> 
 </vehicle>
<vehicle depart="54030" id="veh7" type="CarA" color="1,0,0" > 
 <route id="route05" edges="D4 L4 L14 L16 L10 L7 D7"/> 
 </vehicle>
<vehicle depart="54060" id="veh8" type="CarA" color="1,0,0" > 
 <route id="route01" edges="D2 L2 L12 L10 L7 D7"/> 
 </vehicle>
<vehicle depart="54060" id="veh9" type="CarA" color="1,0,0" > 
 <route id="route02" edges="D2 L2 L12 L15 L18 L5 D5"/> 
 </vehicle>
<vehicle depart="54060" id="veh10" type="CarA" color="1,0,0" > 
 <route id="route04" edges="D4 L4 L14 L18 L5 D5"/> 
 </vehicle>
<vehicle depart="54060" id="veh11" type="CarA" color="1,0,0" > 
 <route id="route05" edges="D4 L4 L14 L16 L10 L7 D7"/> 
 </vehicle>
<vehicle depart="54090" id="veh12" type="CarA" color="1,0,0" > 
 <route id="route01" edges="D2 L2 L12 L10 L7 D7"/> 
 </vehicle>
<vehicle depart="54090" id="veh13" type="CarA" color="1,0,0" > 
 <route id="route02" edges="D2 L2 L12 L15 L18 L5 D5"/> 
 </vehicle>
<vehicle depart="54090" id="veh14" type="CarA" color="1,0,0" > 
 <route id="route04" edges="D4 L4 L14 L18 L5 D5"/> 
 </vehicle>
<vehicle depart="54090" id="veh15" type="CarA" color="1,0,0" > 
 <route id="route05" edges="D4 L4 L14 L16 L10 L7 D7"/> 
 </vehicle>
<vehicle depart="54120" id="veh16" type="CarA" color="1,0,0" > 
 <route id="route01" edges="D2 L2 L12 L10 L7 D7"/> 
 </vehicle>
<vehicle depart="54120" id="veh17" type="CarA" color="1,0,0" > 
 <route id="route02" edges="D2 L2 L12 L15 L18 L5 D5"/> 
 </vehicle>
<vehicle depart="54120" id="veh18" type="CarA" color="1,0,0" > 
 <route id="route04" edges="D4 L4 L14 L18 L5 D5"/> 
 </vehicle>
<vehicle depart="54120" id="veh19" type="CarA" color="1,0,0" > 
 <route id="route05" edges="D4 L4 L14 L16 L10 L7 D7"/> 
 </vehicle>
<vehicle depart="54150" id="veh20" type="CarA" color="1,0,0" > 
 <route id="route01" edges="D2 L2 L12 L10 L7 D7"/> 
 </vehicle>
<vehicle depart="54150" id="veh21" type="CarA" color="1,0,0" > 
 <route id="route02" edges="D2 L2 L12 L15 L18 L5 D5"/> 
 </vehicle>
<vehicle depart="54150" id="veh22" type="CarA" color="1,0,0" > 
 <route id="route04" edges="D4 L4 L14 L18 L5 D5"/> 
 </vehicle>
<vehicle depart="54150" id="veh23" type="CarA" color="1,0,0" > 
 <route id="route05" edges="D4 L4 L14 L16 L10 L7 D7"/> 
 </vehicle>
<vehicle depart="54180" id="veh24" type="CarA" color="1,0,0" > 
 <route id="route01" edges="D2 L2 L12 L10 L7 D7"/> 
 </vehicle>
<vehicle depart="54180" id="veh25" type="CarA" color="1,0,0" > 
 <route id="route02" edges="D2 L2 L12 L15 L18 L5 D5"/> 
 </vehicle>
<vehicle depart="54180" id="veh26" type="CarA" color="1,0,0" > 
 <route id="route04" edges="D4 L4 L14 L18 L5 D5"/> 
 </vehicle>
<vehicle depart="54180" id="veh27" type="CarA" color="1,0,0" > 
 <route id="route05" edges="D4 L4 L14 L16 L10 L7 D7"/> 
 </vehicle>
<vehicle depart="54210" id="veh28" type="CarA" color="1,0,0" > 
 <route id="route01" edges="D2 L2 L12 L10 L7 D7"/> 
 </vehicle>
<vehicle depart="54210" id="veh29" type="CarA" color="1,0,0" > 
 <route id="route02" edges="D2 L2 L12 L15 L18 L5 D5"/> 
 </vehicle>
<vehicle depart="54210" id="veh30" type="CarA" color="1,0,0" > 
 <route id="route04" edges="D4 L4 L14 L18 L5 D5"/> 
 </vehicle>
<vehicle depart="54210" id="veh31" type="CarA" color="1,0,0" > 
 <route id="route05" edges="D4 L4 L14 L16 L10 L7 D7"/> 
 </vehicle>
<vehicle depart="54240" id="veh32" type="CarA" color="1,0,0" > 
 <route id="route01" edges="D2 L2 L12 L10 L7 D7"/> 
 </vehicle>
<vehicle depart="54240" id="veh33" type="CarA" color="1,0,0" > 
 <route id="route02" edges="D2 L2 L12 L15 L18 L5 D5"/> 
 </vehicle>
<vehicle depart="54240" id="veh34" type="CarA" color="1,0,0" > 
 <route id="route04" edges="D4 L4 L14 L18 L5 D5"/> 
 </vehicle>
<vehicle depart="54240" id="veh35" type="CarA" color="1,0,0" > 
 <route id="route05" edges="D4 L4 L14 L16 L10 L7 D7"/> 
 </vehicle>
<vehicle depart="54270" id="veh36" type="CarA" color="1,0,0" > 
 <route id="route01" edges="D2 L2 L12 L10 L7 D7"/> 
 </vehicle>
<vehicle depart="54270" id="veh37" type="CarA" color="1,0,0" > 
 <route id="route02" edges="D2 L2 L12 L15 L18 L5 D5"/> 
 </vehicle>
<vehicle depart="54270" id="veh38" type="CarA" color="1,0,0" > 
 <route id="route04" edges="D4 L4 L14 L18 L5 D5"/> 
 </vehicle>
<vehicle depart="54270" id="veh39" type="CarA" color="1,0,0" > 
 <route id="route05" edges="D4 L4 L14 L16 L10 L7 D7"/> 
 </vehicle>
<vehicle depart="54300" id="veh40" type="CarA" color="1,0,0" > 
 <route id="route01" edges="D2 L2 L12 L10 L7 D7"/> 
 </vehicle>
<vehicle depart="54300" id="veh41" type="CarA" color="1,0,0" > 
 <route id="route02" edges="D2 L2 L12 L15 L18 L5 D5"/> 
 </vehicle>
<vehicle depart="54300" id="veh42" type="CarA" color="1,0,0" > 
 <route id="route04" edges="D4 L4 L14 L18 L5 D5"/> 
 </vehicle>
<vehicle depart="54300" id="veh43" type="CarA" color="1,0,0" > 
 <route id="route05" edges="D4 L4 L14 L16 L10 L7 D7"/> 
 </vehicle>
<vehicle depart="54330" id="veh44" type="CarA" color="1,0,0" > 
 <route id="route01" edges="D2 L2 L12 L10 L7 D7"/> 
 </vehicle>
<vehicle depart="54330" id="veh45" type="CarA" color="1,0,0" > 
 <route id="route02" edges="D2 L2 L12 L15 L18 L5 D5"/> 
 </vehicle>
<vehicle depart="54330" id="veh46" type="CarA" color="1,0,0" > 
 <route id="route04" edges="D4 L4 L14 L18 L5 D5"/> 
 </vehicle>
<vehicle depart="54330" id="veh47" type="CarA" color="1,0,0" > 
 <route id="route05" edges="D4 L4 L14 L16 L10 L7 D7"/> 
 </vehicle>
<vehicle depart="54360" id="veh48" type="CarA" color="1,0,0" > 
 <route id="route01" edges="D2 L2 L12 L10 L7 D7"/> 
 </vehicle>
<vehicle depart="54360" id="veh49" type="CarA" color="1,0,0" > 
 <route id="route02" edges="D2 L2 L12 L15 L18 L5 D5"/> 
 </vehicle>
<vehicle depart="54360" id="veh50" type="CarA" color="1,0,0" > 
 <route id="route04" edges="D4 L4 L14 L18 L5 D5"/> 
 </vehicle>
<vehicle depart="54360" id="veh51" type="CarA" color="1,0,0" > 
 <route id="route05" edges="D4 L4 L14 L16 L10 L7 D7"/> 
 </vehicle>
<vehicle depart="54390" id="veh52" type="CarA" color="1,0,0" > 
 <route id="route01" edges="D2 L2 L12 L10 L7 D7"/> 
 </vehicle>
<vehicle depart="54390" id="veh53" type="CarA" color="1,0,0" > 
 <route id="route02" edges="D2 L2 L12 L15 L18 L5 D5"/> 
 </vehicle>
<vehicle depart="54390" id="veh54" type="CarA" color="1,0,0" > 
 <route id="route04" edges="D4 L4 L14 L18 L5 D5"/> 
 </vehicle>
<vehicle depart="54390" id="veh55" type="CarA" color="1,0,0" > 
 <route id="route05" edges="D4 L4 L14 L16 L10 L7 D7"/> 
 </vehicle>
<vehicle depart="54420" id="veh56" type="CarA" color="1,0,0" > 
 <route id="route01" edges="D2 L2 L12 L10 L7 D7"/> 
 </vehicle>
<vehicle depart="54420" id="veh57" type="CarA" color="1,0,0" > 
 <route id="route02" edges="D2 L2 L12 L15 L18 L5 D5"/> 
 </vehicle>
<vehicle depart="54420" id="veh58" type="CarA" color="1,0,0" > 
 <route id="route04" edges="D4 L4 L14 L18 L5 D5"/> 
 </vehicle>
<vehicle depart="54420" id="veh59" type="CarA" color="1,0,0" > 
 <route id="route05" edges="D4 L4 L14 L16 L10 L7 D7"/> 
 </vehicle>
<vehicle depart="54450" id="veh60" type="CarA" color="1,0,0" > 
 <route id="route01" edges="D2 L2 L12 L10 L7 D7"/> 
 </vehicle>
<vehicle depart="54450" id="veh61" type="CarA" color="1,0,0" > 
 <route id="route02" edges="D2 L2 L12 L15 L18 L5 D5"/> 
 </vehicle>
<vehicle depart="54450" id="veh62" type="CarA" color="1,0,0" > 
 <route id="route04" edges="D4 L4 L14 L18 L5 D5"/> 
 </vehicle>
<vehicle depart="54450" id="veh63" type="CarA" color="1,0,0" > 
 <route id="route05" edges="D4 L4 L14 L16 L10 L7 D7"/> 
 </vehicle>
<vehicle depart="54480" id="veh64" type="CarA" color="1,0,0" > 
 <route id="route01" edges="D2 L2 L12 L10 L7 D7"/> 
 </vehicle>
<vehicle depart="54480" id="veh65" type="CarA" color="1,0,0" > 
 <route id="route02" edges="D2 L2 L12 L15 L18 L5 D5"/> 
 </vehicle>
<vehicle depart="54480" id="veh66" type="CarA" color="1,0,0" > 
 <route id="route04" edges="D4 L4 L14 L18 L5 D5"/> 
 </vehicle>
<vehicle depart="54480" id="veh67" type="CarA" color="1,0,0" > 
 <route id="route05" edges="D4 L4 L14 L16 L10 L7 D7"/> 
 </vehicle>
<vehicle depart="54510" id="veh68" type="CarA" color="1,0,0" > 
 <route id="route01" edges="D2 L2 L12 L10 L7 D7"/> 
 </vehicle>
<vehicle depart="54510" id="veh69" type="CarA" color="1,0,0" > 
 <route id="route02" edges="D2 L2 L12 L15 L18 L5 D5"/> 
 </vehicle>
<vehicle depart="54510" id="veh70" type="CarA" color="1,0,0" > 
 <route id="route04" edges="D4 L4 L14 L18 L5 D5"/> 
 </vehicle>
<vehicle depart="54510" id="veh71" type="CarA" color="1,0,0" > 
 <route id="route05" edges="D4 L4 L14 L16 L10 L7 D7"/> 
 </vehicle>
<vehicle depart="54540" id="veh72" type="CarA" color="1,0,0" > 
 <route id="route01" edges="D2 L2 L12 L10 L7 D7"/> 
 </vehicle>
<vehicle depart="54540" id="veh73" type="CarA" color="1,0,0" > 
 <route id="route02" edges="D2 L2 L12 L15 L18 L5 D5"/> 
 </vehicle>
<vehicle depart="54540" id="veh74" type="CarA" color="1,0,0" > 
 <route id="route04" edges="D4 L4 L14 L18 L5 D5"/> 
 </vehicle>
<vehicle depart="54540" id="veh75" type="CarA" color="1,0,0" > 
 <route id="route05" edges="D4 L4 L14 L16 L10 L7 D7"/> 
 </vehicle>
<vehicle depart="54570" id="veh76" type="CarA" color="1,0,0" > 
 <route id="route01" edges="D2 L2 L12 L10 L7 D7"/> 
 </vehicle>
<vehicle depart="54570" id="veh77" type="CarA" color="1,0,0" > 
 <route id="route02" edges="D2 L2 L12 L15 L18 L5 D5"/> 
 </vehicle>
<vehicle depart="54570" id="veh78" type="CarA" color="1,0,0" > 
 <route id="route04" edges="D4 L4 L14 L18 L5 D5"/> 
 </vehicle>
<vehicle depart="54570" id="veh79" type="CarA" color="1,0,0" > 
 <route id="route05" edges="D4 L4 L14 L16 L10 L7 D7"/> 
 </vehicle>
<vehicle depart="54600" id="veh80" type="CarA" color="1,0,0" > 
 <route id="route01" edges="D2 L2 L12 L10 L7 D7"/> 
 </vehicle>
<vehicle depart="54600" id="veh81" type="CarA" color="1,0,0" > 
 <route id="route02" edges="D2 L2 L12 L15 L18 L5 D5"/> 
 </vehicle>
<vehicle depart="54600" id="veh82" type="CarA" color="1,0,0" > 
 <route id="route04" edges="D4 L4 L14 L18 L5 D5"/> 
 </vehicle>
<vehicle depart="54600" id="veh83" type="CarA" color="1,0,0" > 
 <route id="route05" edges="D4 L4 L14 L16 L10 L7 D7"/> 
 </vehicle>
<vehicle depart="54630" id="veh84" type="CarA" color="1,0,0" > 
 <route id="route01" edges="D2 L2 L12 L10 L7 D7"/> 
 </vehicle>
<vehicle depart="54630" id="veh85" type="CarA" color="1,0,0" > 
 <route id="route02" edges="D2 L2 L12 L15 L18 L5 D5"/> 
 </vehicle>
<vehicle depart="54630" id="veh86" type="CarA" color="1,0,0" > 
 <route id="route04" edges="D4 L4 L14 L18 L5 D5"/> 
 </vehicle>
<vehicle depart="54630" id="veh87" type="CarA" color="1,0,0" > 
 <route id="route05" edges="D4 L4 L14 L16 L10 L7 D7"/> 
 </vehicle>
<vehicle depart="54660" id="veh88" type="CarA" color="1,0,0" > 
 <route id="route01" edges="D2 L2 L12 L10 L7 D7"/> 
 </vehicle>
<vehicle depart="54660" id="veh89" type="CarA" color="1,0,0" > 
 <route id="route02" edges="D2 L2 L12 L15 L18 L5 D5"/> 
 </vehicle>
<vehicle depart="54660" id="veh90" type="CarA" color="1,0,0" > 
 <route id="route04" edges="D4 L4 L14 L18 L5 D5"/> 
 </vehicle>
<vehicle depart="54660" id="veh91" type="CarA" color="1,0,0" > 
 <route id="route05" edges="D4 L4 L14 L16 L10 L7 D7"/> 
 </vehicle>
<vehicle depart="54690" id="veh92" type="CarA" color="1,0,0" > 
 <route id="route01" edges="D2 L2 L12 L10 L7 D7"/> 
 </vehicle>
<vehicle depart="54690" id="veh93" type="CarA" color="1,0,0" > 
 <route id="route02" edges="D2 L2 L12 L15 L18 L5 D5"/> 
 </vehicle>
<vehicle depart="54690" id="veh94" type="CarA" color="1,0,0" > 
 <route id="route04" edges="D4 L4 L14 L18 L5 D5"/> 
 </vehicle>
<vehicle depart="54690" id="veh95" type="CarA" color="1,0,0" > 
 <route id="route05" edges="D4 L4 L14 L16 L10 L7 D7"/> 
 </vehicle>
<vehicle depart="54720" id="veh96" type="CarA" color="1,0,0" > 
 <route id="route01" edges="D2 L2 L12 L10 L7 D7"/> 
 </vehicle>
<vehicle depart="54720" id="veh97" type="CarA" color="1,0,0" > 
 <route id="route02" edges="D2 L2 L12 L15 L18 L5 D5"/> 
 </vehicle>
<vehicle depart="54720" id="veh98" type="CarA" color="1,0,0" > 
 <route id="route04" edges="D4 L4 L14 L18 L5 D5"/> 
 </vehicle>
<vehicle depart="54720" id="veh99" type="CarA" color="1,0,0" > 
 <route id="route05" edges="D4 L4 L14 L16 L10 L7 D7"/> 
 </vehicle>
<vehicle depart="54750" id="veh100" type="CarA" color="1,0,0" > 
 <route id="route01" edges="D2 L2 L12 L10 L7 D7"/> 
 </vehicle>
<vehicle depart="54750" id="veh101" type="CarA" color="1,0,0" > 
 <route id="route02" edges="D2 L2 L12 L15 L18 L5 D5"/> 
 </vehicle>
<vehicle depart="54750" id="veh102" type="CarA" color="1,0,0" > 
 <route id="route04" edges="D4 L4 L14 L18 L5 D5"/> 
 </vehicle>
<vehicle depart="54750" id="veh103" type="CarA" color="1,0,0" > 
 <route id="route05" edges="D4 L4 L14 L16 L10 L7 D7"/> 
 </vehicle>
<vehicle depart="54780" id="veh104" type="CarA" color="1,0,0" > 
 <route id="route01" edges="D2 L2 L12 L10 L7 D7"/> 
 </vehicle>
<vehicle depart="54780" id="veh105" type="CarA" color="1,0,0" > 
 <route id="route02" edges="D2 L2 L12 L15 L18 L5 D5"/> 
 </vehicle>
<vehicle depart="54780" id="veh106" type="CarA" color="1,0,0" > 
 <route id="route04" edges="D4 L4 L14 L18 L5 D5"/> 
 </vehicle>
<vehicle depart="54780" id="veh107" type="CarA" color="1,0,0" > 
 <route id="route05" edges="D4 L4 L14 L16 L10 L7 D7"/> 
 </vehicle>
<vehicle depart="54810" id="veh108" type="CarA" color="1,0,0" > 
 <route id="route01" edges="D2 L2 L12 L10 L7 D7"/> 
 </vehicle>
<vehicle depart="54810" id="veh109" type="CarA" color="1,0,0" > 
 <route id="route02" edges="D2 L2 L12 L15 L18 L5 D5"/> 
 </vehicle>
<vehicle depart="54810" id="veh110" type="CarA" color="1,0,0" > 
 <route id="route04" edges="D4 L4 L14 L18 L5 D5"/> 
 </vehicle>
<vehicle depart="54810" id="veh111" type="CarA" color="1,0,0" > 
 <route id="route05" edges="D4 L4 L14 L16 L10 L7 D7"/> 
 </vehicle>
<vehicle depart="54840" id="veh112" type="CarA" color="1,0,0" > 
 <route id="route01" edges="D2 L2 L12 L10 L7 D7"/> 
 </vehicle>
<vehicle depart="54840" id="veh113" type="CarA" color="1,0,0" > 
 <route id="route02" edges="D2 L2 L12 L15 L18 L5 D5"/> 
 </vehicle>
<vehicle depart="54840" id="veh114" type="CarA" color="1,0,0" > 
 <route id="route04" edges="D4 L4 L14 L18 L5 D5"/> 
 </vehicle>
<vehicle depart="54840" id="veh115" type="CarA" color="1,0,0" > 
 <route id="route05" edges="D4 L4 L14 L16 L10 L7 D7"/> 
 </vehicle>
<vehicle depart="54870" id="veh116" type="CarA" color="1,0,0" > 
 <route id="route01" edges="D2 L2 L12 L10 L7 D7"/> 
 </vehicle>
<vehicle depart="54870" id="veh117" type="CarA" color="1,0,0" > 
 <route id="route02" edges="D2 L2 L12 L15 L18 L5 D5"/> 
 </vehicle>
<vehicle depart="54870" id="veh118" type="CarA" color="1,0,0" > 
 <route id="route04" edges="D4 L4 L14 L18 L5 D5"/> 
 </vehicle>
<vehicle depart="54870" id="veh119" type="CarA" color="1,0,0" > 
 <route id="route05" edges="D4 L4 L14 L16 L10 L7 D7"/> 
 </vehicle>
<vehicle depart="54900" id="veh120" type="CarA" color="1,0,0" > 
 <route id="route01" edges="D2 L2 L12 L10 L7 D7"/> 
 </vehicle>
<vehicle depart="54900" id="veh121" type="CarA" color="1,0,0" > 
 <route id="route02" edges="D2 L2 L12 L15 L18 L5 D5"/> 
 </vehicle>
<vehicle depart="54900" id="veh122" type="CarA" color="1,0,0" > 
 <route id="route04" edges="D4 L4 L14 L18 L5 D5"/> 
 </vehicle>
<vehicle depart="54900" id="veh123" type="CarA" color="1,0,0" > 
 <route id="route05" edges="D4 L4 L14 L16 L10 L7 D7"/> 
 </vehicle>
<vehicle depart="54930" id="veh124" type="CarA" color="1,0,0" > 
 <route id="route01" edges="D2 L2 L12 L10 L7 D7"/> 
 </vehicle>
<vehicle depart="54930" id="veh125" type="CarA" color="1,0,0" > 
 <route id="route02" edges="D2 L2 L12 L15 L18 L5 D5"/> 
 </vehicle>
<vehicle depart="54930" id="veh126" type="CarA" color="1,0,0" > 
 <route id="route04" edges="D4 L4 L14 L18 L5 D5"/> 
 </vehicle>
<vehicle depart="54930" id="veh127" type="CarA" color="1,0,0" > 
 <route id="route05" edges="D4 L4 L14 L16 L10 L7 D7"/> 
 </vehicle>
<vehicle depart="54960" id="veh128" type="CarA" color="1,0,0" > 
 <route id="route01" edges="D2 L2 L12 L10 L7 D7"/> 
 </vehicle>
<vehicle depart="54960" id="veh129" type="CarA" color="1,0,0" > 
 <route id="route02" edges="D2 L2 L12 L15 L18 L5 D5"/> 
 </vehicle>
<vehicle depart="54960" id="veh130" type="CarA" color="1,0,0" > 
 <route id="route04" edges="D4 L4 L14 L18 L5 D5"/> 
 </vehicle>
<vehicle depart="54960" id="veh131" type="CarA" color="1,0,0" > 
 <route id="route05" edges="D4 L4 L14 L16 L10 L7 D7"/> 
 </vehicle>
<vehicle depart="54990" id="veh132" type="CarA" color="1,0,0" > 
 <route id="route01" edges="D2 L2 L12 L10 L7 D7"/> 
 </vehicle>
<vehicle depart="54990" id="veh133" type="CarA" color="1,0,0" > 
 <route id="route02" edges="D2 L2 L12 L15 L18 L5 D5"/> 
 </vehicle>
<vehicle depart="54990" id="veh134" type="CarA" color="1,0,0" > 
 <route id="route04" edges="D4 L4 L14 L18 L5 D5"/> 
 </vehicle>
<vehicle depart="54990" id="veh135" type="CarA" color="1,0,0" > 
 <route id="route05" edges="D4 L4 L14 L16 L10 L7 D7"/> 
 </vehicle>
<vehicle depart="55020" id="veh136" type="CarA" color="1,0,0" > 
 <route id="route01" edges="D2 L2 L12 L10 L7 D7"/> 
 </vehicle>
<vehicle depart="55020" id="veh137" type="CarA" color="1,0,0" > 
 <route id="route02" edges="D2 L2 L12 L15 L18 L5 D5"/> 
 </vehicle>
<vehicle depart="55020" id="veh138" type="CarA" color="1,0,0" > 
 <route id="route04" edges="D4 L4 L14 L18 L5 D5"/> 
 </vehicle>
<vehicle depart="55020" id="veh139" type="CarA" color="1,0,0" > 
 <route id="route05" edges="D4 L4 L14 L16 L10 L7 D7"/> 
 </vehicle>
<vehicle depart="55050" id="veh140" type="CarA" color="1,0,0" > 
 <route id="route01" edges="D2 L2 L12 L10 L7 D7"/> 
 </vehicle>
<vehicle depart="55050" id="veh141" type="CarA" color="1,0,0" > 
 <route id="route02" edges="D2 L2 L12 L15 L18 L5 D5"/> 
 </vehicle>
<vehicle depart="55050" id="veh142" type="CarA" color="1,0,0" > 
 <route id="route04" edges="D4 L4 L14 L18 L5 D5"/> 
 </vehicle>
<vehicle depart="55050" id="veh143" type="CarA" color="1,0,0" > 
 <route id="route05" edges="D4 L4 L14 L16 L10 L7 D7"/> 
 </vehicle>
<vehicle depart="55080" id="veh144" type="CarA" color="1,0,0" > 
 <route id="route01" edges="D2 L2 L12 L10 L7 D7"/> 
 </vehicle>
<vehicle depart="55080" id="veh145" type="CarA" color="1,0,0" > 
 <route id="route02" edges="D2 L2 L12 L15 L18 L5 D5"/> 
 </vehicle>
<vehicle depart="55080" id="veh146" type="CarA" color="1,0,0" > 
 <route id="route04" edges="D4 L4 L14 L18 L5 D5"/> 
 </vehicle>
<vehicle depart="55080" id="veh147" type="CarA" color="1,0,0" > 
 <route id="route05" edges="D4 L4 L14 L16 L10 L7 D7"/> 
 </vehicle>
<vehicle depart="55110" id="veh148" type="CarA" color="1,0,0" > 
 <route id="route01" edges="D2 L2 L12 L10 L7 D7"/> 
 </vehicle>
<vehicle depart="55110" id="veh149" type="CarA" color="1,0,0" > 
 <route id="route02" edges="D2 L2 L12 L15 L18 L5 D5"/> 
 </vehicle>
<vehicle depart="55110" id="veh150" type="CarA" color="1,0,0" > 
 <route id="route04" edges="D4 L4 L14 L18 L5 D5"/> 
 </vehicle>
<vehicle depart="55110" id="veh151" type="CarA" color="1,0,0" > 
 <route id="route05" edges="D4 L4 L14 L16 L10 L7 D7"/> 
 </vehicle>
<vehicle depart="55140" id="veh152" type="CarA" color="1,0,0" > 
 <route id="route01" edges="D2 L2 L12 L10 L7 D7"/> 
 </vehicle>
<vehicle depart="55140" id="veh153" type="CarA" color="1,0,0" > 
 <route id="route02" edges="D2 L2 L12 L15 L18 L5 D5"/> 
 </vehicle>
<vehicle depart="55140" id="veh154" type="CarA" color="1,0,0" > 
 <route id="route04" edges="D4 L4 L14 L18 L5 D5"/> 
 </vehicle>
<vehicle depart="55140" id="veh155" type="CarA" color="1,0,0" > 
 <route id="route05" edges="D4 L4 L14 L16 L10 L7 D7"/> 
 </vehicle>
<vehicle depart="55170" id="veh156" type="CarA" color="1,0,0" > 
 <route id="route01" edges="D2 L2 L12 L10 L7 D7"/> 
 </vehicle>
<vehicle depart="55170" id="veh157" type="CarA" color="1,0,0" > 
 <route id="route02" edges="D2 L2 L12 L15 L18 L5 D5"/> 
 </vehicle>
<vehicle depart="55170" id="veh158" type="CarA" color="1,0,0" > 
 <route id="route04" edges="D4 L4 L14 L18 L5 D5"/> 
 </vehicle>
<vehicle depart="55170" id="veh159" type="CarA" color="1,0,0" > 
 <route id="route05" edges="D4 L4 L14 L16 L10 L7 D7"/> 
 </vehicle>
<vehicle depart="55200" id="veh160" type="CarA" color="1,0,0" > 
 <route id="route01" edges="D2 L2 L12 L10 L7 D7"/> 
 </vehicle>
<vehicle depart="55200" id="veh161" type="CarA" color="1,0,0" > 
 <route id="route02" edges="D2 L2 L12 L15 L18 L5 D5"/> 
 </vehicle>
<vehicle depart="55200" id="veh162" type="CarA" color="1,0,0" > 
 <route id="route04" edges="D4 L4 L14 L18 L5 D5"/> 
 </vehicle>
<vehicle depart="55200" id="veh163" type="CarA" color="1,0,0" > 
 <route id="route05" edges="D4 L4 L14 L16 L10 L7 D7"/> 
 </vehicle>
<vehicle depart="55230" id="veh164" type="CarA" color="1,0,0" > 
 <route id="route01" edges="D2 L2 L12 L10 L7 D7"/> 
 </vehicle>
<vehicle depart="55230" id="veh165" type="CarA" color="1,0,0" > 
 <route id="route02" edges="D2 L2 L12 L15 L18 L5 D5"/> 
 </vehicle>
<vehicle depart="55230" id="veh166" type="CarA" color="1,0,0" > 
 <route id="route04" edges="D4 L4 L14 L18 L5 D5"/> 
 </vehicle>
<vehicle depart="55230" id="veh167" type="CarA" color="1,0,0" > 
 <route id="route05" edges="D4 L4 L14 L16 L10 L7 D7"/> 
 </vehicle>
<vehicle depart="55260" id="veh168" type="CarA" color="1,0,0" > 
 <route id="route01" edges="D2 L2 L12 L10 L7 D7"/> 
 </vehicle>
<vehicle depart="55260" id="veh169" type="CarA" color="1,0,0" > 
 <route id="route02" edges="D2 L2 L12 L15 L18 L5 D5"/> 
 </vehicle>
<vehicle depart="55260" id="veh170" type="CarA" color="1,0,0" > 
 <route id="route04" edges="D4 L4 L14 L18 L5 D5"/> 
 </vehicle>
<vehicle depart="55260" id="veh171" type="CarA" color="1,0,0" > 
 <route id="route05" edges="D4 L4 L14 L16 L10 L7 D7"/> 
 </vehicle>
<vehicle depart="55290" id="veh172" type="CarA" color="1,0,0" > 
 <route id="route01" edges="D2 L2 L12 L10 L7 D7"/> 
 </vehicle>
<vehicle depart="55290" id="veh173" type="CarA" color="1,0,0" > 
 <route id="route02" edges="D2 L2 L12 L15 L18 L5 D5"/> 
 </vehicle>
<vehicle depart="55290" id="veh174" type="CarA" color="1,0,0" > 
 <route id="route04" edges="D4 L4 L14 L18 L5 D5"/> 
 </vehicle>
<vehicle depart="55290" id="veh175" type="CarA" color="1,0,0" > 
 <route id="route05" edges="D4 L4 L14 L16 L10 L7 D7"/> 
 </vehicle>
<vehicle depart="55320" id="veh176" type="CarA" color="1,0,0" > 
 <route id="route01" edges="D2 L2 L12 L10 L7 D7"/> 
 </vehicle>
<vehicle depart="55320" id="veh177" type="CarA" color="1,0,0" > 
 <route id="route02" edges="D2 L2 L12 L15 L18 L5 D5"/> 
 </vehicle>
<vehicle depart="55320" id="veh178" type="CarA" color="1,0,0" > 
 <route id="route04" edges="D4 L4 L14 L18 L5 D5"/> 
 </vehicle>
<vehicle depart="55320" id="veh179" type="CarA" color="1,0,0" > 
 <route id="route05" edges="D4 L4 L14 L16 L10 L7 D7"/> 
 </vehicle>
<vehicle depart="55350" id="veh180" type="CarA" color="1,0,0" > 
 <route id="route01" edges="D2 L2 L12 L10 L7 D7"/> 
 </vehicle>
<vehicle depart="55350" id="veh181" type="CarA" color="1,0,0" > 
 <route id="route02" edges="D2 L2 L12 L15 L18 L5 D5"/> 
 </vehicle>
<vehicle depart="55350" id="veh182" type="CarA" color="1,0,0" > 
 <route id="route04" edges="D4 L4 L14 L18 L5 D5"/> 
 </vehicle>
<vehicle depart="55350" id="veh183" type="CarA" color="1,0,0" > 
 <route id="route05" edges="D4 L4 L14 L16 L10 L7 D7"/> 
 </vehicle>
<vehicle depart="55380" id="veh184" type="CarA" color="1,0,0" > 
 <route id="route01" edges="D2 L2 L12 L10 L7 D7"/> 
 </vehicle>
<vehicle depart="55380" id="veh185" type="CarA" color="1,0,0" > 
 <route id="route02" edges="D2 L2 L12 L15 L18 L5 D5"/> 
 </vehicle>
<vehicle depart="55380" id="veh186" type="CarA" color="1,0,0" > 
 <route id="route04" edges="D4 L4 L14 L18 L5 D5"/> 
 </vehicle>
<vehicle depart="55380" id="veh187" type="CarA" color="1,0,0" > 
 <route id="route05" edges="D4 L4 L14 L16 L10 L7 D7"/> 
 </vehicle>
<vehicle depart="55410" id="veh188" type="CarA" color="1,0,0" > 
 <route id="route01" edges="D2 L2 L12 L10 L7 D7"/> 
 </vehicle>
<vehicle depart="55410" id="veh189" type="CarA" color="1,0,0" > 
 <route id="route02" edges="D2 L2 L12 L15 L18 L5 D5"/> 
 </vehicle>
<vehicle depart="55410" id="veh190" type="CarA" color="1,0,0" > 
 <route id="route04" edges="D4 L4 L14 L18 L5 D5"/> 
 </vehicle>
<vehicle depart="55410" id="veh191" type="CarA" color="1,0,0" > 
 <route id="route05" edges="D4 L4 L14 L16 L10 L7 D7"/> 
 </vehicle>
<vehicle depart="55440" id="veh192" type="CarA" color="1,0,0" > 
 <route id="route01" edges="D2 L2 L12 L10 L7 D7"/> 
 </vehicle>
<vehicle depart="55440" id="veh193" type="CarA" color="1,0,0" > 
 <route id="route02" edges="D2 L2 L12 L15 L18 L5 D5"/> 
 </vehicle>
<vehicle depart="55440" id="veh194" type="CarA" color="1,0,0" > 
 <route id="route04" edges="D4 L4 L14 L18 L5 D5"/> 
 </vehicle>
<vehicle depart="55440" id="veh195" type="CarA" color="1,0,0" > 
 <route id="route05" edges="D4 L4 L14 L16 L10 L7 D7"/> 
 </vehicle>
<vehicle depart="55470" id="veh196" type="CarA" color="1,0,0" > 
 <route id="route01" edges="D2 L2 L12 L10 L7 D7"/> 
 </vehicle>
<vehicle depart="55470" id="veh197" type="CarA" color="1,0,0" > 
 <route id="route02" edges="D2 L2 L12 L15 L18 L5 D5"/> 
 </vehicle>
<vehicle depart="55470" id="veh198" type="CarA" color="1,0,0" > 
 <route id="route04" edges="D4 L4 L14 L18 L5 D5"/> 
 </vehicle>
<vehicle depart="55470" id="veh199" type="CarA" color="1,0,0" > 
 <route id="route05" edges="D4 L4 L14 L16 L10 L7 D7"/> 
 </vehicle>
<vehicle depart="55500" id="veh200" type="CarA" color="1,0,0" > 
 <route id="route01" edges="D2 L2 L12 L10 L7 D7"/> 
 </vehicle>
<vehicle depart="55500" id="veh201" type="CarA" color="1,0,0" > 
 <route id="route02" edges="D2 L2 L12 L15 L18 L5 D5"/> 
 </vehicle>
<vehicle depart="55500" id="veh202" type="CarA" color="1,0,0" > 
 <route id="route04" edges="D4 L4 L14 L18 L5 D5"/> 
 </vehicle>
<vehicle depart="55500" id="veh203" type="CarA" color="1,0,0" > 
 <route id="route05" edges="D4 L4 L14 L16 L10 L7 D7"/> 
 </vehicle>
<vehicle depart="55530" id="veh204" type="CarA" color="1,0,0" > 
 <route id="route01" edges="D2 L2 L12 L10 L7 D7"/> 
 </vehicle>
<vehicle depart="55530" id="veh205" type="CarA" color="1,0,0" > 
 <route id="route02" edges="D2 L2 L12 L15 L18 L5 D5"/> 
 </vehicle>
<vehicle depart="55530" id="veh206" type="CarA" color="1,0,0" > 
 <route id="route04" edges="D4 L4 L14 L18 L5 D5"/> 
 </vehicle>
<vehicle depart="55530" id="veh207" type="CarA" color="1,0,0" > 
 <route id="route05" edges="D4 L4 L14 L16 L10 L7 D7"/> 
 </vehicle>
<vehicle depart="55560" id="veh208" type="CarA" color="1,0,0" > 
 <route id="route01" edges="D2 L2 L12 L10 L7 D7"/> 
 </vehicle>
<vehicle depart="55560" id="veh209" type="CarA" color="1,0,0" > 
 <route id="route02" edges="D2 L2 L12 L15 L18 L5 D5"/> 
 </vehicle>
<vehicle depart="55560" id="veh210" type="CarA" color="1,0,0" > 
 <route id="route04" edges="D4 L4 L14 L18 L5 D5"/> 
 </vehicle>
<vehicle depart="55560" id="veh211" type="CarA" color="1,0,0" > 
 <route id="route05" edges="D4 L4 L14 L16 L10 L7 D7"/> 
 </vehicle>
<vehicle depart="55590" id="veh212" type="CarA" color="1,0,0" > 
 <route id="route01" edges="D2 L2 L12 L10 L7 D7"/> 
 </vehicle>
<vehicle depart="55590" id="veh213" type="CarA" color="1,0,0" > 
 <route id="route02" edges="D2 L2 L12 L15 L18 L5 D5"/> 
 </vehicle>
<vehicle depart="55590" id="veh214" type="CarA" color="1,0,0" > 
 <route id="route04" edges="D4 L4 L14 L18 L5 D5"/> 
 </vehicle>
<vehicle depart="55590" id="veh215" type="CarA" color="1,0,0" > 
 <route id="route05" edges="D4 L4 L14 L16 L10 L7 D7"/> 
 </vehicle>
<vehicle depart="55620" id="veh216" type="CarA" color="1,0,0" > 
 <route id="route01" edges="D2 L2 L12 L10 L7 D7"/> 
 </vehicle>
<vehicle depart="55620" id="veh217" type="CarA" color="1,0,0" > 
 <route id="route02" edges="D2 L2 L12 L15 L18 L5 D5"/> 
 </vehicle>
<vehicle depart="55620" id="veh218" type="CarA" color="1,0,0" > 
 <route id="route04" edges="D4 L4 L14 L18 L5 D5"/> 
 </vehicle>
<vehicle depart="55620" id="veh219" type="CarA" color="1,0,0" > 
 <route id="route05" edges="D4 L4 L14 L16 L10 L7 D7"/> 
 </vehicle>
<vehicle depart="55650" id="veh220" type="CarA" color="1,0,0" > 
 <route id="route01" edges="D2 L2 L12 L10 L7 D7"/> 
 </vehicle>
<vehicle depart="55650" id="veh221" type="CarA" color="1,0,0" > 
 <route id="route02" edges="D2 L2 L12 L15 L18 L5 D5"/> 
 </vehicle>
<vehicle depart="55650" id="veh222" type="CarA" color="1,0,0" > 
 <route id="route04" edges="D4 L4 L14 L18 L5 D5"/> 
 </vehicle>
<vehicle depart="55650" id="veh223" type="CarA" color="1,0,0" > 
 <route id="route05" edges="D4 L4 L14 L16 L10 L7 D7"/> 
 </vehicle>
<vehicle depart="55680" id="veh224" type="CarA" color="1,0,0" > 
 <route id="route01" edges="D2 L2 L12 L10 L7 D7"/> 
 </vehicle>
<vehicle depart="55680" id="veh225" type="CarA" color="1,0,0" > 
 <route id="route02" edges="D2 L2 L12 L15 L18 L5 D5"/> 
 </vehicle>
<vehicle depart="55680" id="veh226" type="CarA" color="1,0,0" > 
 <route id="route04" edges="D4 L4 L14 L18 L5 D5"/> 
 </vehicle>